                                  MODFLOW-NWT-SWR1 
      U.S. GEOLOGICAL SURVEY MODULAR FINITE-DIFFERENCE GROUNDWATER-FLOW MODEL
                             VERSION 1.1.4 4/01/2018
                    BASED ON MODFLOW-2005 VERSION 1.12.00 02/03/2017

 LIST FILE: model_time_0_geo_0_thick_1_K_32.27_Sy_0.1_Step1_site3_Chronicle0_Approx0_Period3652.0.list
                         UNIT    2

 OPENING model_time_0_geo_0_thick_1_K_32.27_Sy_0.1_Step1_site3_Chronicle0_Approx0_Period3652.0.nwt
 FILE TYPE:NWT   UNIT   32   STATUS:OLD    
 FORMAT:FORMATTED              ACCESS:SEQUENTIAL          

 OPENING model_time_0_geo_0_thick_1_K_32.27_Sy_0.1_Step1_site3_Chronicle0_Approx0_Period3652.0.dis
 FILE TYPE:DIS   UNIT   11   STATUS:OLD    
 FORMAT:FORMATTED              ACCESS:SEQUENTIAL          

 OPENING model_time_0_geo_0_thick_1_K_32.27_Sy_0.1_Step1_site3_Chronicle0_Approx0_Period3652.0.bas
 FILE TYPE:BAS6   UNIT   13   STATUS:OLD    
 FORMAT:FORMATTED              ACCESS:SEQUENTIAL          

 OPENING model_time_0_geo_0_thick_1_K_32.27_Sy_0.1_Step1_site3_Chronicle0_Approx0_Period3652.0.upw
 FILE TYPE:UPW   UNIT   31   STATUS:OLD    
 FORMAT:FORMATTED              ACCESS:SEQUENTIAL          

 OPENING model_time_0_geo_0_thick_1_K_32.27_Sy_0.1_Step1_site3_Chronicle0_Approx0_Period3652.0.rch
 FILE TYPE:RCH   UNIT   19   STATUS:OLD    
 FORMAT:FORMATTED              ACCESS:SEQUENTIAL          

 OPENING model_time_0_geo_0_thick_1_K_32.27_Sy_0.1_Step1_site3_Chronicle0_Approx0_Period3652.0.drn
 FILE TYPE:DRN   UNIT   21   STATUS:OLD    
 FORMAT:FORMATTED              ACCESS:SEQUENTIAL          

 OPENING model_time_0_geo_0_thick_1_K_32.27_Sy_0.1_Step1_site3_Chronicle0_Approx0_Period3652.0.oc
 FILE TYPE:OC   UNIT   14   STATUS:OLD    
 FORMAT:FORMATTED              ACCESS:SEQUENTIAL          

 OPENING model_time_0_geo_0_thick_1_K_32.27_Sy_0.1_Step1_site3_Chronicle0_Approx0_Period3652.0.hds
 FILE TYPE:DATA(BINARY)   UNIT   51   STATUS:REPLACE
 FORMAT:UNFORMATTED            ACCESS:STREAM              

 BAS -- BASIC PACKAGE, VERSION 1.1.4, 4/01/2018 INPUT READ FROM UNIT   13

 MODFLOW was compiled using mixed precision
 Precision of REAL variables:           6
 Precision of DOUBLE PRECISION variables:          15

 DISCRETIZATION INPUT DATA READ FROM UNIT   11
 # DIS package for MODFLOW-NWT generated by Flopy 3.3.6
    6 LAYERS       200 ROWS       174 COLUMNS
    6 STRESS PERIOD(S) IN SIMULATION
 MODEL TIME UNIT IS DAYS
 MODEL LENGTH UNIT IS METERS
  Confining bed flag for each layer:
   0   0   0   0   0   0

                     DELR =   75.0000    

                     DELC =   75.0000    



           TOP ELEVATION OF LAYER 1
 READING ON UNIT   11 WITH FORMAT: (174E15.6)          



             MODEL LAYER BOTTOM EL. FOR LAYER   1
 READING ON UNIT   11 WITH FORMAT: (174E15.6)          



             MODEL LAYER BOTTOM EL. FOR LAYER   2
 READING ON UNIT   11 WITH FORMAT: (174E15.6)          



             MODEL LAYER BOTTOM EL. FOR LAYER   3
 READING ON UNIT   11 WITH FORMAT: (174E15.6)          



             MODEL LAYER BOTTOM EL. FOR LAYER   4
 READING ON UNIT   11 WITH FORMAT: (174E15.6)          



             MODEL LAYER BOTTOM EL. FOR LAYER   5
 READING ON UNIT   11 WITH FORMAT: (174E15.6)          



             MODEL LAYER BOTTOM EL. FOR LAYER   6
 READING ON UNIT   11 WITH FORMAT: (174E15.6)          


 STRESS PERIOD     LENGTH       TIME STEPS     MULTIPLIER FOR DELT    SS FLAG
 ----------------------------------------------------------------------------
        1         1.000000          1                    1.000         SS
        2         3652.000          1                    1.000         TR
        3         3652.000          1                    1.000         TR
        4         3652.000          1                    1.000         TR
        5         3652.000          1                    1.000         TR
        6         732.0000          1                    1.000         TR

 COMBINED STEADY-STATE AND TRANSIENT SIMULATION




 # BAS6 package for MODFLOW-NWT generated by Flopy 3.3.6                         
 THE FREE FORMAT OPTION HAS BEEN SELECTED



                     BOUNDARY ARRAY FOR LAYER   1
 READING ON UNIT   13 WITH FORMAT: (174I10)            



                     BOUNDARY ARRAY FOR LAYER   2
 READING ON UNIT   13 WITH FORMAT: (174I10)            



                     BOUNDARY ARRAY FOR LAYER   3
 READING ON UNIT   13 WITH FORMAT: (174I10)            



                     BOUNDARY ARRAY FOR LAYER   4
 READING ON UNIT   13 WITH FORMAT: (174I10)            



                     BOUNDARY ARRAY FOR LAYER   5
 READING ON UNIT   13 WITH FORMAT: (174I10)            



                     BOUNDARY ARRAY FOR LAYER   6
 READING ON UNIT   13 WITH FORMAT: (174I10)            

 AQUIFER HEAD WILL BE SET TO  0.58100     AT ALL NO-FLOW NODES (IBOUND=0).



                       INITIAL HEAD FOR LAYER   1
 READING ON UNIT   13 WITH FORMAT: (174E15.6)          



                       INITIAL HEAD FOR LAYER   2
 READING ON UNIT   13 WITH FORMAT: (174E15.6)          



                       INITIAL HEAD FOR LAYER   3
 READING ON UNIT   13 WITH FORMAT: (174E15.6)          



                       INITIAL HEAD FOR LAYER   4
 READING ON UNIT   13 WITH FORMAT: (174E15.6)          



                       INITIAL HEAD FOR LAYER   5
 READING ON UNIT   13 WITH FORMAT: (174E15.6)          



                       INITIAL HEAD FOR LAYER   6
 READING ON UNIT   13 WITH FORMAT: (174E15.6)          
 # OC package for MODFLOW-NWT generated by Flopy 3.3.6

 OUTPUT CONTROL IS SPECIFIED ONLY AT TIME STEPS FOR WHICH OUTPUT IS DESIRED
 COMPACT CELL-BY-CELL BUDGET FILES WILL BE WRITTEN
 AUXILIARY DATA WILL BE SAVED IN CELL-BY-CELL BUDGET FILES
 HEAD PRINT FORMAT CODE IS   0    DRAWDOWN PRINT FORMAT CODE IS   0
 HEADS WILL BE SAVED ON UNIT   51    DRAWDOWNS WILL BE SAVED ON UNIT    0
 # NWT package for MODFLOW-NWT generated by Flopy 3.3.6

 NWT1 -- Newton Solver, VERSION 1.1.4, 4/01/2018
         INPUT READ FROM UNIT 32

 COMPLEX OPTION:
 DEFAULT SOLVER INPUT VALUES REFLECT STRONGLY NONLINEAR MODEL
 ***GMRES linear solver will be used***

   CONVERGENCE CRITERION OF   0.100000E-02 FOR HEAD SOLUTION
   AND A TOLERANCE OF   0.500000E+03 FOR FLOW SOLUTION AND 
   A MAXIMUM OF  1000 OUTER ITERATIONS. 


   D-B-D REDUCTION FACTOR OF    0.850000E+00 AND 
   A D-B-D INCREASE FACTOR OF    0.100000E-04 AND 
   A D-B-D RELAXATION OF    0.000000E+00 AND 
   A MOMENTUM FACTOR OF    0.100000E+00 .


   BACKTRACKING IS ACTIVE 
   THE MAXIMUM NUMBER OF BACKTRACKS IS    50 AND 
   THE BACKTRACKING TOLERANCE IS    0.110000E+01 AND
   THE BACKTRACKING REDUCTION FACTOR IS    0.700000E+00

 GMRES -- LINEAR SOLUTION BY GMRES PACKAGE 
     adapted for HYDROTHERM by Kipp and others (2008)
     using software originally developed by Saad (1990) 32
     using algorithms described in Saad (2003)

 UPW1 -- UPSTREAM WEIGHTING FLOW PACKAGE, VERSION 1.1.4, 4/01/2018
         INPUT READ FROM UNIT 31

 # UPW package for MODFLOW-NWT generated by Flopy 3.3.6
 No named parameters

   LAYER FLAGS:
 LAYER       LAYTYP          LAYAVG    CHANI           LAYVKA           LAYWET
 ---------------------------------------------------------------------------
    1             1             0     1.000E+00             0             0
    2             1             0     1.000E+00             0             0
    3             1             0     1.000E+00             0             0
    4             1             0     1.000E+00             0             0
    5             1             0     1.000E+00             0             0
    6             1             0     1.000E+00             0             0

   INTERPRETATION OF LAYER FLAGS:
                        INTERBLOCK     HORIZONTAL    DATA IN
         LAYER TYPE   TRANSMISSIVITY   ANISOTROPY   ARRAY VKA   WETTABILITY
 LAYER   (LAYTYP)        (LAYAVG)      (CHANI)     (LAYVKA)       (LAYWET)
 ---------------------------------------------------------------------------
    1   CONVERTIBLE      HARMONIC     1.000E+00    VERTICAL K  NON-WETTABLE
    2   CONVERTIBLE      HARMONIC     1.000E+00    VERTICAL K  NON-WETTABLE
    3   CONVERTIBLE      HARMONIC     1.000E+00    VERTICAL K  NON-WETTABLE
    4   CONVERTIBLE      HARMONIC     1.000E+00    VERTICAL K  NON-WETTABLE
    5   CONVERTIBLE      HARMONIC     1.000E+00    VERTICAL K  NON-WETTABLE
    6   CONVERTIBLE      HARMONIC     1.000E+00    VERTICAL K  NON-WETTABLE



              HYD. COND. ALONG ROWS FOR LAYER   1
 READING ON UNIT   31 WITH FORMAT: (174E15.6)          



                VERTICAL HYD. COND. FOR LAYER   1
 READING ON UNIT   31 WITH FORMAT: (174E15.6)          

         SPECIFIC STORAGE =  1.000000E-05 FOR LAYER   1

           SPECIFIC YIELD =   10.1000     FOR LAYER   1



              HYD. COND. ALONG ROWS FOR LAYER   2
 READING ON UNIT   31 WITH FORMAT: (174E15.6)          



                VERTICAL HYD. COND. FOR LAYER   2
 READING ON UNIT   31 WITH FORMAT: (174E15.6)          

         SPECIFIC STORAGE =  1.000000E-05 FOR LAYER   2

           SPECIFIC YIELD =   10.1000     FOR LAYER   2



              HYD. COND. ALONG ROWS FOR LAYER   3
 READING ON UNIT   31 WITH FORMAT: (174E15.6)          



                VERTICAL HYD. COND. FOR LAYER   3
 READING ON UNIT   31 WITH FORMAT: (174E15.6)          

         SPECIFIC STORAGE =  1.000000E-05 FOR LAYER   3

           SPECIFIC YIELD =   10.1000     FOR LAYER   3



              HYD. COND. ALONG ROWS FOR LAYER   4
 READING ON UNIT   31 WITH FORMAT: (174E15.6)          



                VERTICAL HYD. COND. FOR LAYER   4
 READING ON UNIT   31 WITH FORMAT: (174E15.6)          

         SPECIFIC STORAGE =  1.000000E-05 FOR LAYER   4

           SPECIFIC YIELD =   10.1000     FOR LAYER   4



              HYD. COND. ALONG ROWS FOR LAYER   5
 READING ON UNIT   31 WITH FORMAT: (174E15.6)          



                VERTICAL HYD. COND. FOR LAYER   5
 READING ON UNIT   31 WITH FORMAT: (174E15.6)          

         SPECIFIC STORAGE =  1.000000E-05 FOR LAYER   5

           SPECIFIC YIELD =   10.1000     FOR LAYER   5



              HYD. COND. ALONG ROWS FOR LAYER   6
 READING ON UNIT   31 WITH FORMAT: (174E15.6)          



                VERTICAL HYD. COND. FOR LAYER   6
 READING ON UNIT   31 WITH FORMAT: (174E15.6)          

         SPECIFIC STORAGE =  1.000000E-05 FOR LAYER   6

           SPECIFIC YIELD =   10.1000     FOR LAYER   6

 DRN -- DRAIN PACKAGE, VERSION 7, 5/2/2005 INPUT READ FROM UNIT   21
 # DRN package for MODFLOW-NWT generated by Flopy 3.3.6
 No named parameters
 MAXIMUM OF  34800 ACTIVE DRAINS AT ONE TIME


     0 Drain parameters

 RCH -- RECHARGE PACKAGE, VERSION 7, 5/2/2005 INPUT READ FROM UNIT   19
 # RCH package for MODFLOW-NWT generated by Flopy 3.3.6
 No named parameters
 OPTION 3 -- RECHARGE TO HIGHEST ACTIVE NODE IN EACH VERTICAL COLUMN


     0 Recharge parameters
1
                            STRESS PERIOD NO.    1, LENGTH =   1.000000    
                            -----------------------------------------------

                              NUMBER OF TIME STEPS =     1

                               MULTIPLIER FOR DELT =     1.000

                            INITIAL TIME STEP SIZE =   1.000000    

 DRAIN NO.  LAYER   ROW   COL     DRAIN EL.  CONDUCTANCE         
 ----------------------------------------------------------------
      1      1      1      1       8.730          0.1815E+06
      2      1      1      2       8.270          0.1815E+06
      3      1      1      3       8.060          0.1815E+06
      4      1      1      4       7.630          0.1815E+06
      5      1      1      5       6.980          0.1815E+06
      6      1      1      6       6.670          0.1815E+06
      7      1      1      7       6.050          0.1815E+06
      8      1      1      8       6.170          0.1815E+06
      9      1      1      9       5.650          0.1815E+06
     10      1      1     10       8.810          0.1815E+06
     11      1      1     11       5.260          0.1815E+06
     12      1      1     12       4.410          0.1815E+06
     13      1      1     13       4.410          0.1815E+06
     14      1      1     14       4.400          0.1815E+06
     15      1      1     15       4.400          0.1815E+06
     16      1      1     16       3.400          0.1815E+06
     17      1      1     17       3.400          0.1815E+06
     18      1      1     18       3.400          0.1815E+06
     19      1      1     19       3.910          0.1815E+06
     20      1      1     20       4.400          0.1815E+06
     21      1      1     21       7.280          0.1815E+06
     22      1      1     22       8.440          0.1815E+06
     23      1      1     23       11.55          0.1815E+06
     24      1      1     24       13.14          0.1815E+06
     25      1      1     25       14.53          0.1815E+06
     26      1      1     26       15.21          0.1815E+06
     27      1      1     27       16.40          0.1815E+06
     28      1      1     28       15.97          0.1815E+06
     29      1      1     29       16.12          0.1815E+06
     30      1      1     30       16.71          0.1815E+06
     31      1      1     31       16.54          0.1815E+06
     32      1      1     32       16.31          0.1815E+06
     33      1      1     33       16.19          0.1815E+06
     34      1      1     34       16.69          0.1815E+06
     35      1      1     35       17.55          0.1815E+06
     36      1      1     36       18.51          0.1815E+06
     37      1      1     37       19.62          0.1815E+06
     38      1      1     38       20.31          0.1815E+06
     39      1      1     39       20.63          0.1815E+06
     40      1      1     40       20.51          0.1815E+06
     41      1      1     41       19.61          0.1815E+06
     42      1      1     42       18.53          0.1815E+06
     43      1      1     43       17.15          0.1815E+06
     44      1      1     44       14.53          0.1815E+06
     45      1      1     45       15.93          0.1815E+06
     46      1      1     46       15.93          0.1815E+06
     47      1      1     47       19.19          0.1815E+06
     48      1      1     48       19.02          0.1815E+06
     49      1      1     49       17.60          0.1815E+06
     50      1      1     50       16.22          0.1815E+06
     51      1      1     51       16.50          0.1815E+06
     52      1      1     52       17.72          0.1815E+06
     53      1      1     53       19.12          0.1815E+06
     54      1      1     54       19.25          0.1815E+06
     55      1      1     55       19.85          0.1815E+06
     56      1      1     56       21.17          0.1815E+06
     57      1      1     57       21.20          0.1815E+06
     58      1      1     58       19.87          0.1815E+06
     59      1      1     59       18.77          0.1815E+06
     60      1      1     60       15.77          0.1815E+06
     61      1      1     61       11.96          0.1815E+06
     62      1      1     62       8.890          0.1815E+06
     63      1      1     63       11.73          0.1815E+06
     64      1      1     64       10.07          0.1815E+06
     65      1      1     65       8.890          0.1815E+06
     66      1      1     66       7.210          0.1815E+06
     67      1      1     67       7.170          0.1815E+06
     68      1      1     68       6.880          0.1815E+06
     69      1      1     69       7.550          0.1815E+06
     70      1      1     70       8.930          0.1815E+06
     71      1      1     71       20.14          0.1815E+06
     72      1      1     72       29.20          0.1815E+06
     73      1      1     73       32.00          0.1815E+06
     74      1      1     74       35.00          0.1815E+06
     75      1      1     75       36.70          0.1815E+06
     76      1      1     76       38.00          0.1815E+06
     77      1      1     77       37.00          0.1815E+06
     78      1      1     78       37.00          0.1815E+06
     79      1      1     79       37.60          0.1815E+06
     80      1      1     80       38.40          0.1815E+06
     81      1      1     81       41.50          0.1815E+06
     82      1      1     82       40.80          0.1815E+06
     83      1      1     83       40.30          0.1815E+06
     84      1      1     84       40.20          0.1815E+06
     85      1      1     85       40.10          0.1815E+06
     86      1      1     86       39.30          0.1815E+06
     87      1      1     87       38.80          0.1815E+06
     88      1      1     88       37.90          0.1815E+06
     89      1      1     89       36.50          0.1815E+06
     90      1      1     90       33.50          0.1815E+06
     91      1      1     91       33.30          0.1815E+06
     92      1      1     92       35.50          0.1815E+06
     93      1      1     93       36.00          0.1815E+06
     94      1      1     94       35.70          0.1815E+06
     95      1      1     95       33.00          0.1815E+06
     96      1      1     96       30.80          0.1815E+06
     97      1      1     97       33.20          0.1815E+06
     98      1      1     98       31.80          0.1815E+06
     99      1      1     99       29.90          0.1815E+06
    100      1      1    100       26.70          0.1815E+06
    101      1      1    101       20.70          0.1815E+06
    102      1      1    102       19.60          0.1815E+06
    103      1      1    103       18.70          0.1815E+06
    104      1      1    104       17.00          0.1815E+06
    105      1      1    105       15.60          0.1815E+06
    106      1      1    106       15.00          0.1815E+06
    107      1      1    107       13.90          0.1815E+06
    108      1      1    108       13.30          0.1815E+06
    109      1      1    109       12.70          0.1815E+06
    110      1      1    110       12.50          0.1815E+06
    111      1      1    111       12.50          0.1815E+06
    112      1      1    112       13.10          0.1815E+06
    113      1      1    113       13.60          0.1815E+06
    114      1      1    114       13.60          0.1815E+06
    115      1      1    115       13.50          0.1815E+06
    116      1      1    116       13.80          0.1815E+06
    117      1      1    117       14.40          0.1815E+06
    118      1      1    118       14.90          0.1815E+06
    119      1      1    119       15.80          0.1815E+06
    120      1      1    120       15.90          0.1815E+06
    121      1      1    121       15.20          0.1815E+06
    122      1      1    122       15.80          0.1815E+06
    123      1      1    123       16.10          0.1815E+06
    124      1      1    124       15.70          0.1815E+06
    125      1      1    125       15.20          0.1815E+06
    126      1      1    126       14.00          0.1815E+06
    127      1      1    127       13.10          0.1815E+06
    128      1      1    128       12.20          0.1815E+06
    129      1      1    129       11.00          0.1815E+06
    130      1      1    130       10.50          0.1815E+06
    131      1      1    131       10.00          0.1815E+06
    132      1      1    132       8.800          0.1815E+06
    133      1      1    133       9.390          0.1815E+06
    134      1      1    134       9.180          0.1815E+06
    135      1      1    135       7.690          0.1815E+06
    136      1      1    136       5.650          0.1815E+06
    137      1      1    137       5.260          0.1815E+06
    138      1      1    138       5.150          0.1815E+06
    139      1      1    139       5.320          0.1815E+06
    140      1      1    140       5.530          0.1815E+06
    141      1      1    141       5.380          0.1815E+06
    142      1      1    142       5.510          0.1815E+06
    143      1      1    143       5.460          0.1815E+06
    144      1      1    144       5.590          0.1815E+06
    145      1      1    145       5.340          0.1815E+06
    146      1      1    146       5.360          0.1815E+06
    147      1      1    147       5.400          0.1815E+06
    148      1      1    148       5.340          0.1815E+06
    149      1      1    149       5.170          0.1815E+06
    150      1      1    150       5.090          0.1815E+06
    151      1      1    151       4.960          0.1815E+06
    152      1      1    152       4.840          0.1815E+06
    153      1      1    153       4.760          0.1815E+06
    154      1      1    154       4.730          0.1815E+06
    155      1      1    155       4.780          0.1815E+06
    156      1      1    156       4.690          0.1815E+06
    157      1      1    157       4.800          0.1815E+06
    158      1      1    158       4.800          0.1815E+06
    159      1      1    159       4.840          0.1815E+06
    160      1      1    160       4.750          0.1815E+06
    161      1      1    161       4.730          0.1815E+06
    162      1      1    162       4.710          0.1815E+06
    163      1      1    163       4.920          0.1815E+06
    164      1      1    164       4.920          0.1815E+06
    165      1      1    165       4.840          0.1815E+06
    166      1      1    166       4.880          0.1815E+06
    167      1      1    167       4.940          0.1815E+06
    168      1      1    168       4.690          0.1815E+06
    169      1      1    169       4.670          0.1815E+06
    170      1      1    170       4.780          0.1815E+06
    171      1      1    171       4.630          0.1815E+06
    172      1      1    172       4.670          0.1815E+06
    173      1      1    173       4.650          0.1815E+06
    174      1      1    174       4.710          0.1815E+06
    175      1      2      1       8.150          0.1815E+06
    176      1      2      2       8.100          0.1815E+06
    177      1      2      3       8.770          0.1815E+06
    178      1      2      4       7.340          0.1815E+06
    179      1      2      5       7.030          0.1815E+06
    180      1      2      6       6.530          0.1815E+06
    181      1      2      7       6.460          0.1815E+06
    182      1      2      8       5.650          0.1815E+06
    183      1      2      9       5.980          0.1815E+06
    184      1      2     10       5.610          0.1815E+06
    185      1      2     11       8.190          0.1815E+06
    186      1      2     12       4.410          0.1815E+06
    187      1      2     13       4.410          0.1815E+06
    188      1      2     14       4.400          0.1815E+06
    189      1      2     15       4.400          0.1815E+06
    190      1      2     16       3.400          0.1815E+06
    191      1      2     17       3.400          0.1815E+06
    192      1      2     18       3.400          0.1815E+06
    193      1      2     19       3.910          0.1815E+06
    194      1      2     20       5.820          0.1815E+06
    195      1      2     21       7.880          0.1815E+06
    196      1      2     22       10.59          0.1815E+06
    197      1      2     23       12.27          0.1815E+06
    198      1      2     24       12.81          0.1815E+06
    199      1      2     25       13.00          0.1815E+06
    200      1      2     26       14.27          0.1815E+06
    201      1      2     27       14.93          0.1815E+06
    202      1      2     28       15.65          0.1815E+06
    203      1      2     29       15.80          0.1815E+06
    204      1      2     30       16.39          0.1815E+06
    205      1      2     31       16.20          0.1815E+06
    206      1      2     32       16.07          0.1815E+06
    207      1      2     33       16.45          0.1815E+06
    208      1      2     34       15.97          0.1815E+06
    209      1      2     35       16.77          0.1815E+06
    210      1      2     36       17.72          0.1815E+06
    211      1      2     37       18.52          0.1815E+06
    212      1      2     38       19.03          0.1815E+06
    213      1      2     39       19.17          0.1815E+06
    214      1      2     40       19.32          0.1815E+06
    215      1      2     41       18.57          0.1815E+06
    216      1      2     42       17.60          0.1815E+06
    217      1      2     43       16.32          0.1815E+06
    218      1      2     44       15.07          0.1815E+06
    219      1      2     45       13.76          0.1815E+06
    220      1      2     46       15.71          0.1815E+06
    221      1      2     47       16.37          0.1815E+06
    222      1      2     48       16.54          0.1815E+06
    223      1      2     49       17.32          0.1815E+06
    224      1      2     50       17.95          0.1815E+06
    225      1      2     51       17.98          0.1815E+06
    226      1      2     52       18.39          0.1815E+06
    227      1      2     53       18.97          0.1815E+06
    228      1      2     54       19.29          0.1815E+06
    229      1      2     55       20.04          0.1815E+06
    230      1      2     56       20.73          0.1815E+06
    231      1      2     57       20.25          0.1815E+06
    232      1      2     58       18.89          0.1815E+06
    233      1      2     59       18.82          0.1815E+06
    234      1      2     60       15.61          0.1815E+06
    235      1      2     61       12.51          0.1815E+06
    236      1      2     62       9.810          0.1815E+06
    237      1      2     63       7.510          0.1815E+06
    238      1      2     64       7.130          0.1815E+06
    239      1      2     65       7.070          0.1815E+06
    240      1      2     66       7.050          0.1815E+06
    241      1      2     67       7.340          0.1815E+06
    242      1      2     68       6.940          0.1815E+06
    243      1      2     69       8.180          0.1815E+06
    244      1      2     70       13.59          0.1815E+06
    245      1      2     71       21.91          0.1815E+06
    246      1      2     72       31.00          0.1815E+06
    247      1      2     73       35.20          0.1815E+06
    248      1      2     74       37.20          0.1815E+06
    249      1      2     75       37.50          0.1815E+06
    250      1      2     76       37.60          0.1815E+06
    251      1      2     77       37.20          0.1815E+06
    252      1      2     78       37.20          0.1815E+06
    253      1      2     79       37.80          0.1815E+06
    254      1      2     80       37.90          0.1815E+06
    255      1      2     81       39.40          0.1815E+06
    256      1      2     82       40.60          0.1815E+06
    257      1      2     83       39.60          0.1815E+06
    258      1      2     84       38.80          0.1815E+06
    259      1      2     85       38.80          0.1815E+06
    260      1      2     86       38.10          0.1815E+06
    261      1      2     87       37.80          0.1815E+06
    262      1      2     88       37.40          0.1815E+06
    263      1      2     89       35.70          0.1815E+06
    264      1      2     90       31.90          0.1815E+06
    265      1      2     91       31.30          0.1815E+06
    266      1      2     92       35.00          0.1815E+06
    267      1      2     93       34.90          0.1815E+06
    268      1      2     94       32.50          0.1815E+06
    269      1      2     95       29.10          0.1815E+06
    270      1      2     96       26.00          0.1815E+06
    271      1      2     97       27.10          0.1815E+06
    272      1      2     98       25.80          0.1815E+06
    273      1      2     99       23.40          0.1815E+06
    274      1      2    100       21.30          0.1815E+06
    275      1      2    101       16.90          0.1815E+06
    276      1      2    102       15.90          0.1815E+06
    277      1      2    103       16.20          0.1815E+06
    278      1      2    104       14.70          0.1815E+06
    279      1      2    105       13.50          0.1815E+06
    280      1      2    106       12.90          0.1815E+06
    281      1      2    107       13.00          0.1815E+06
    282      1      2    108       12.60          0.1815E+06
    283      1      2    109       12.70          0.1815E+06
    284      1      2    110       13.60          0.1815E+06
    285      1      2    111       14.60          0.1815E+06
    286      1      2    112       15.30          0.1815E+06
    287      1      2    113       15.10          0.1815E+06
    288      1      2    114       14.70          0.1815E+06
    289      1      2    115       14.50          0.1815E+06
    290      1      2    116       14.60          0.1815E+06
    291      1      2    117       15.10          0.1815E+06
    292      1      2    118       15.10          0.1815E+06
    293      1      2    119       15.60          0.1815E+06
    294      1      2    120       15.80          0.1815E+06
    295      1      2    121       15.30          0.1815E+06
    296      1      2    122       15.50          0.1815E+06
    297      1      2    123       15.70          0.1815E+06
    298      1      2    124       15.50          0.1815E+06
    299      1      2    125       15.20          0.1815E+06
    300      1      2    126       15.00          0.1815E+06
    301      1      2    127       13.70          0.1815E+06
    302      1      2    128       13.10          0.1815E+06
    303      1      2    129       12.90          0.1815E+06
    304      1      2    130       11.30          0.1815E+06
    305      1      2    131       10.11          0.1815E+06
    306      1      2    132       8.430          0.1815E+06
    307      1      2    133       7.590          0.1815E+06
    308      1      2    134       7.000          0.1815E+06
    309      1      2    135       5.940          0.1815E+06
    310      1      2    136       5.280          0.1815E+06
    311      1      2    137       5.300          0.1815E+06
    312      1      2    138       5.440          0.1815E+06
    313      1      2    139       5.530          0.1815E+06
    314      1      2    140       5.550          0.1815E+06
    315      1      2    141       5.650          0.1815E+06
    316      1      2    142       5.570          0.1815E+06
    317      1      2    143       5.590          0.1815E+06
    318      1      2    144       5.610          0.1815E+06
    319      1      2    145       5.530          0.1815E+06
    320      1      2    146       5.480          0.1815E+06
    321      1      2    147       5.400          0.1815E+06
    322      1      2    148       5.380          0.1815E+06
    323      1      2    149       5.320          0.1815E+06
    324      1      2    150       5.360          0.1815E+06
    325      1      2    151       5.260          0.1815E+06
    326      1      2    152       5.320          0.1815E+06
    327      1      2    153       5.010          0.1815E+06
    328      1      2    154       4.940          0.1815E+06
    329      1      2    155       4.960          0.1815E+06
    330      1      2    156       4.630          0.1815E+06
    331      1      2    157       5.000          0.1815E+06
    332      1      2    158       4.960          0.1815E+06
    333      1      2    159       5.050          0.1815E+06
    334      1      2    160       5.130          0.1815E+06
    335      1      2    161       4.940          0.1815E+06
    336      1      2    162       5.050          0.1815E+06
    337      1      2    163       5.070          0.1815E+06
    338      1      2    164       4.960          0.1815E+06
    339      1      2    165       4.980          0.1815E+06
    340      1      2    166       4.920          0.1815E+06
    341      1      2    167       4.730          0.1815E+06
    342      1      2    168       4.710          0.1815E+06
    343      1      2    169       4.690          0.1815E+06
    344      1      2    170       4.780          0.1815E+06
    345      1      2    171       4.630          0.1815E+06
    346      1      2    172       4.730          0.1815E+06
    347      1      2    173       4.780          0.1815E+06
    348      1      2    174       4.730          0.1815E+06
    349      1      3      1       7.900          0.1815E+06
    350      1      3      2       7.360          0.1815E+06
    351      1      3      3       7.510          0.1815E+06
    352      1      3      4       7.090          0.1815E+06
    353      1      3      5       7.380          0.1815E+06
    354      1      3      6       6.550          0.1815E+06
    355      1      3      7       6.670          0.1815E+06
    356      1      3      8       6.300          0.1815E+06
    357      1      3      9       6.030          0.1815E+06
    358      1      3     10       5.480          0.1815E+06
    359      1      3     11       7.300          0.1815E+06
    360      1      3     12       4.400          0.1815E+06
    361      1      3     13       4.410          0.1815E+06
    362      1      3     14       4.410          0.1815E+06
    363      1      3     15       4.410          0.1815E+06
    364      1      3     16       3.410          0.1815E+06
    365      1      3     17       3.410          0.1815E+06
    366      1      3     18       2.910          0.1815E+06
    367      1      3     19       4.400          0.1815E+06
    368      1      3     20       7.170          0.1815E+06
    369      1      3     21       8.880          0.1815E+06
    370      1      3     22       13.28          0.1815E+06
    371      1      3     23       15.60          0.1815E+06
    372      1      3     24       14.44          0.1815E+06
    373      1      3     25       14.34          0.1815E+06
    374      1      3     26       13.93          0.1815E+06
    375      1      3     27       15.09          0.1815E+06
    376      1      3     28       15.14          0.1815E+06
    377      1      3     29       15.52          0.1815E+06
    378      1      3     30       15.46          0.1815E+06
    379      1      3     31       16.23          0.1815E+06
    380      1      3     32       16.25          0.1815E+06
    381      1      3     33       16.64          0.1815E+06
    382      1      3     34       16.38          0.1815E+06
    383      1      3     35       17.04          0.1815E+06
    384      1      3     36       17.71          0.1815E+06
    385      1      3     37       17.87          0.1815E+06
    386      1      3     38       18.42          0.1815E+06
    387      1      3     39       19.26          0.1815E+06
    388      1      3     40       19.48          0.1815E+06
    389      1      3     41       19.14          0.1815E+06
    390      1      3     42       18.62          0.1815E+06
    391      1      3     43       18.01          0.1815E+06
    392      1      3     44       16.36          0.1815E+06
    393      1      3     45       13.28          0.1815E+06
    394      1      3     46       14.44          0.1815E+06
    395      1      3     47       16.03          0.1815E+06
    396      1      3     48       19.04          0.1815E+06
    397      1      3     49       19.72          0.1815E+06
    398      1      3     50       19.77          0.1815E+06
    399      1      3     51       19.65          0.1815E+06
    400      1      3     52       20.20          0.1815E+06
    401      1      3     53       19.94          0.1815E+06
    402      1      3     54       20.07          0.1815E+06
    403      1      3     55       20.40          0.1815E+06
    404      1      3     56       20.54          0.1815E+06
    405      1      3     57       19.89          0.1815E+06
    406      1      3     58       18.86          0.1815E+06
    407      1      3     59       19.21          0.1815E+06
    408      1      3     60       17.35          0.1815E+06
    409      1      3     61       13.97          0.1815E+06
    410      1      3     62       8.020          0.1815E+06
    411      1      3     63       6.570          0.1815E+06
    412      1      3     64       6.030          0.1815E+06
    413      1      3     65       6.760          0.1815E+06
    414      1      3     66       6.800          0.1815E+06
    415      1      3     67       8.440          0.1815E+06
    416      1      3     68       13.31          0.1815E+06
    417      1      3     69       15.64          0.1815E+06
    418      1      3     70       28.84          0.1815E+06
    419      1      3     71       28.70          0.1815E+06
    420      1      3     72       30.33          0.1815E+06
    421      1      3     73       36.80          0.1815E+06
    422      1      3     74       37.60          0.1815E+06
    423      1      3     75       37.50          0.1815E+06
    424      1      3     76       38.00          0.1815E+06
    425      1      3     77       37.70          0.1815E+06
    426      1      3     78       37.90          0.1815E+06
    427      1      3     79       38.10          0.1815E+06
    428      1      3     80       37.60          0.1815E+06
    429      1      3     81       37.90          0.1815E+06
    430      1      3     82       38.40          0.1815E+06
    431      1      3     83       38.70          0.1815E+06
    432      1      3     84       37.90          0.1815E+06
    433      1      3     85       37.10          0.1815E+06
    434      1      3     86       36.80          0.1815E+06
    435      1      3     87       36.60          0.1815E+06
    436      1      3     88       37.00          0.1815E+06
    437      1      3     89       35.30          0.1815E+06
    438      1      3     90       30.40          0.1815E+06
    439      1      3     91       30.70          0.1815E+06
    440      1      3     92       32.60          0.1815E+06
    441      1      3     93       31.20          0.1815E+06
    442      1      3     94       27.90          0.1815E+06
    443      1      3     95       24.80          0.1815E+06
    444      1      3     96       22.60          0.1815E+06
    445      1      3     97       21.40          0.1815E+06
    446      1      3     98       20.90          0.1815E+06
    447      1      3     99       19.30          0.1815E+06
    448      1      3    100       17.60          0.1815E+06
    449      1      3    101       16.40          0.1815E+06
    450      1      3    102       14.90          0.1815E+06
    451      1      3    103       14.80          0.1815E+06
    452      1      3    104       13.70          0.1815E+06
    453      1      3    105       13.00          0.1815E+06
    454      1      3    106       12.80          0.1815E+06
    455      1      3    107       12.70          0.1815E+06
    456      1      3    108       12.70          0.1815E+06
    457      1      3    109       13.30          0.1815E+06
    458      1      3    110       15.40          0.1815E+06
    459      1      3    111       16.00          0.1815E+06
    460      1      3    112       16.20          0.1815E+06
    461      1      3    113       15.40          0.1815E+06
    462      1      3    114       15.30          0.1815E+06
    463      1      3    115       15.50          0.1815E+06
    464      1      3    116       15.50          0.1815E+06
    465      1      3    117       15.60          0.1815E+06
    466      1      3    118       15.40          0.1815E+06
    467      1      3    119       15.50          0.1815E+06
    468      1      3    120       15.30          0.1815E+06
    469      1      3    121       15.00          0.1815E+06
    470      1      3    122       15.00          0.1815E+06
    471      1      3    123       15.10          0.1815E+06
    472      1      3    124       15.40          0.1815E+06
    473      1      3    125       15.40          0.1815E+06
    474      1      3    126       15.20          0.1815E+06
    475      1      3    127       14.70          0.1815E+06
    476      1      3    128       13.70          0.1815E+06
    477      1      3    129       12.60          0.1815E+06
    478      1      3    130       11.60          0.1815E+06
    479      1      3    131       10.21          0.1815E+06
    480      1      3    132       8.350          0.1815E+06
    481      1      3    133       6.440          0.1815E+06
    482      1      3    134       5.460          0.1815E+06
    483      1      3    135       5.630          0.1815E+06
    484      1      3    136       5.690          0.1815E+06
    485      1      3    137       5.590          0.1815E+06
    486      1      3    138       5.710          0.1815E+06
    487      1      3    139       5.670          0.1815E+06
    488      1      3    140       5.760          0.1815E+06
    489      1      3    141       5.750          0.1815E+06
    490      1      3    142       5.780          0.1815E+06
    491      1      3    143       5.670          0.1815E+06
    492      1      3    144       5.690          0.1815E+06
    493      1      3    145       5.530          0.1815E+06
    494      1      3    146       5.530          0.1815E+06
    495      1      3    147       5.360          0.1815E+06
    496      1      3    148       5.380          0.1815E+06
    497      1      3    149       5.340          0.1815E+06
    498      1      3    150       5.260          0.1815E+06
    499      1      3    151       5.250          0.1815E+06
    500      1      3    152       5.250          0.1815E+06
    501      1      3    153       5.070          0.1815E+06
    502      1      3    154       5.090          0.1815E+06
    503      1      3    155       5.090          0.1815E+06
    504      1      3    156       4.960          0.1815E+06
    505      1      3    157       5.090          0.1815E+06
    506      1      3    158       5.260          0.1815E+06
    507      1      3    159       5.170          0.1815E+06
    508      1      3    160       5.170          0.1815E+06
    509      1      3    161       5.190          0.1815E+06
    510      1      3    162       5.130          0.1815E+06
    511      1      3    163       4.940          0.1815E+06
    512      1      3    164       4.980          0.1815E+06
    513      1      3    165       5.010          0.1815E+06
    514      1      3    166       4.920          0.1815E+06
    515      1      3    167       4.820          0.1815E+06
    516      1      3    168       4.820          0.1815E+06
    517      1      3    169       4.670          0.1815E+06
    518      1      3    170       4.710          0.1815E+06
    519      1      3    171       4.690          0.1815E+06
    520      1      3    172       4.760          0.1815E+06
    521      1      3    173       4.800          0.1815E+06
    522      1      3    174       4.750          0.1815E+06
    523      1      4      1       9.020          0.1815E+06
    524      1      4      2       8.780          0.1815E+06
    525      1      4      3       7.760          0.1815E+06
    526      1      4      4       7.380          0.1815E+06
    527      1      4      5       8.000          0.1815E+06
    528      1      4      6       6.710          0.1815E+06
    529      1      4      7       6.210          0.1815E+06
    530      1      4      8       5.900          0.1815E+06
    531      1      4      9       5.530          0.1815E+06
    532      1      4     10       5.480          0.1815E+06
    533      1      4     11       4.410          0.1815E+06
    534      1      4     12       3.410          0.1815E+06
    535      1      4     13       4.400          0.1815E+06
    536      1      4     14       3.410          0.1815E+06
    537      1      4     15       3.410          0.1815E+06
    538      1      4     16       3.410          0.1815E+06
    539      1      4     17       3.400          0.1815E+06
    540      1      4     18       2.400          0.1815E+06
    541      1      4     19       2.420          0.1815E+06
    542      1      4     20       5.410          0.1815E+06
    543      1      4     21       5.410          0.1815E+06
    544      1      4     22       13.92          0.1815E+06
    545      1      4     23       15.10          0.1815E+06
    546      1      4     24       14.40          0.1815E+06
    547      1      4     25       13.61          0.1815E+06
    548      1      4     26       14.64          0.1815E+06
    549      1      4     27       15.27          0.1815E+06
    550      1      4     28       15.17          0.1815E+06
    551      1      4     29       15.02          0.1815E+06
    552      1      4     30       15.14          0.1815E+06
    553      1      4     31       14.67          0.1815E+06
    554      1      4     32       16.15          0.1815E+06
    555      1      4     33       16.27          0.1815E+06
    556      1      4     34       16.60          0.1815E+06
    557      1      4     35       16.86          0.1815E+06
    558      1      4     36       17.09          0.1815E+06
    559      1      4     37       17.06          0.1815E+06
    560      1      4     38       18.68          0.1815E+06
    561      1      4     39       20.36          0.1815E+06
    562      1      4     40       20.18          0.1815E+06
    563      1      4     41       18.36          0.1815E+06
    564      1      4     42       17.37          0.1815E+06
    565      1      4     43       17.57          0.1815E+06
    566      1      4     44       16.28          0.1815E+06
    567      1      4     45       13.02          0.1815E+06
    568      1      4     46       18.70          0.1815E+06
    569      1      4     47       20.30          0.1815E+06
    570      1      4     48       21.02          0.1815E+06
    571      1      4     49       21.01          0.1815E+06
    572      1      4     50       20.64          0.1815E+06
    573      1      4     51       20.72          0.1815E+06
    574      1      4     52       20.81          0.1815E+06
    575      1      4     53       20.50          0.1815E+06
    576      1      4     54       20.50          0.1815E+06
    577      1      4     55       20.97          0.1815E+06
    578      1      4     56       20.77          0.1815E+06
    579      1      4     57       18.84          0.1815E+06
    580      1      4     58       20.00          0.1815E+06
    581      1      4     59       18.87          0.1815E+06
    582      1      4     60       17.94          0.1815E+06
    583      1      4     61       9.970          0.1815E+06
    584      1      4     62       6.420          0.1815E+06
    585      1      4     63       6.340          0.1815E+06
    586      1      4     64       6.340          0.1815E+06
    587      1      4     65       6.980          0.1815E+06
    588      1      4     66       10.02          0.1815E+06
    589      1      4     67       13.85          0.1815E+06
    590      1      4     68       23.19          0.1815E+06
    591      1      4     69       29.37          0.1815E+06
    592      1      4     70       32.86          0.1815E+06
    593      1      4     71       34.68          0.1815E+06
    594      1      4     72       34.27          0.1815E+06
    595      1      4     73       34.70          0.1815E+06
    596      1      4     74       36.60          0.1815E+06
    597      1      4     75       36.90          0.1815E+06
    598      1      4     76       35.90          0.1815E+06
    599      1      4     77       36.40          0.1815E+06
    600      1      4     78       38.10          0.1815E+06
    601      1      4     79       38.30          0.1815E+06
    602      1      4     80       37.70          0.1815E+06
    603      1      4     81       37.60          0.1815E+06
    604      1      4     82       37.50          0.1815E+06
    605      1      4     83       37.60          0.1815E+06
    606      1      4     84       36.50          0.1815E+06
    607      1      4     85       35.70          0.1815E+06
    608      1      4     86       35.30          0.1815E+06
    609      1      4     87       35.80          0.1815E+06
    610      1      4     88       35.80          0.1815E+06
    611      1      4     89       33.40          0.1815E+06
    612      1      4     90       29.00          0.1815E+06
    613      1      4     91       28.20          0.1815E+06
    614      1      4     92       28.50          0.1815E+06
    615      1      4     93       25.70          0.1815E+06
    616      1      4     94       23.00          0.1815E+06
    617      1      4     95       21.30          0.1815E+06
    618      1      4     96       20.20          0.1815E+06
    619      1      4     97       18.80          0.1815E+06
    620      1      4     98       18.30          0.1815E+06
    621      1      4     99       17.70          0.1815E+06
    622      1      4    100       16.00          0.1815E+06
    623      1      4    101       15.00          0.1815E+06
    624      1      4    102       14.70          0.1815E+06
    625      1      4    103       15.20          0.1815E+06
    626      1      4    104       15.30          0.1815E+06
    627      1      4    105       15.10          0.1815E+06
    628      1      4    106       13.80          0.1815E+06
    629      1      4    107       14.00          0.1815E+06
    630      1      4    108       14.60          0.1815E+06
    631      1      4    109       14.90          0.1815E+06
    632      1      4    110       15.20          0.1815E+06
    633      1      4    111       16.30          0.1815E+06
    634      1      4    112       16.80          0.1815E+06
    635      1      4    113       16.50          0.1815E+06
    636      1      4    114       16.10          0.1815E+06
    637      1      4    115       15.90          0.1815E+06
    638      1      4    116       15.60          0.1815E+06
    639      1      4    117       15.70          0.1815E+06
    640      1      4    118       15.60          0.1815E+06
    641      1      4    119       14.90          0.1815E+06
    642      1      4    120       14.40          0.1815E+06
    643      1      4    121       14.00          0.1815E+06
    644      1      4    122       14.90          0.1815E+06
    645      1      4    123       15.90          0.1815E+06
    646      1      4    124       15.90          0.1815E+06
    647      1      4    125       15.90          0.1815E+06
    648      1      4    126       15.30          0.1815E+06
    649      1      4    127       14.60          0.1815E+06
    650      1      4    128       14.00          0.1815E+06
    651      1      4    129       13.30          0.1815E+06
    652      1      4    130       12.40          0.1815E+06
    653      1      4    131       10.81          0.1815E+06
    654      1      4    132       9.520          0.1815E+06
    655      1      4    133       7.670          0.1815E+06
    656      1      4    134       5.050          0.1815E+06
    657      1      4    135       5.760          0.1815E+06
    658      1      4    136       5.690          0.1815E+06
    659      1      4    137       5.730          0.1815E+06
    660      1      4    138       5.780          0.1815E+06
    661      1      4    139       5.840          0.1815E+06
    662      1      4    140       5.800          0.1815E+06
    663      1      4    141       5.760          0.1815E+06
    664      1      4    142       5.820          0.1815E+06
    665      1      4    143       5.730          0.1815E+06
    666      1      4    144       5.730          0.1815E+06
    667      1      4    145       5.550          0.1815E+06
    668      1      4    146       5.420          0.1815E+06
    669      1      4    147       5.260          0.1815E+06
    670      1      4    148       5.170          0.1815E+06
    671      1      4    149       5.320          0.1815E+06
    672      1      4    150       5.590          0.1815E+06
    673      1      4    151       5.130          0.1815E+06
    674      1      4    152       5.230          0.1815E+06
    675      1      4    153       5.230          0.1815E+06
    676      1      4    154       5.190          0.1815E+06
    677      1      4    155       5.090          0.1815E+06
    678      1      4    156       4.840          0.1815E+06
    679      1      4    157       5.260          0.1815E+06
    680      1      4    158       5.190          0.1815E+06
    681      1      4    159       5.000          0.1815E+06
    682      1      4    160       4.980          0.1815E+06
    683      1      4    161       5.030          0.1815E+06
    684      1      4    162       5.070          0.1815E+06
    685      1      4    163       4.920          0.1815E+06
    686      1      4    164       4.960          0.1815E+06
    687      1      4    165       4.920          0.1815E+06
    688      1      4    166       4.940          0.1815E+06
    689      1      4    167       4.780          0.1815E+06
    690      1      4    168       4.840          0.1815E+06
    691      1      4    169       4.940          0.1815E+06
    692      1      4    170       4.760          0.1815E+06
    693      1      4    171       4.630          0.1815E+06
    694      1      4    172       4.730          0.1815E+06
    695      1      4    173       4.760          0.1815E+06
    696      1      4    174       4.550          0.1815E+06
    697      1      5      1       7.360          0.1815E+06
    698      1      5      2       7.280          0.1815E+06
    699      1      5      3       7.030          0.1815E+06
    700      1      5      4       7.050          0.1815E+06
    701      1      5      5       6.610          0.1815E+06
    702      1      5      6       6.170          0.1815E+06
    703      1      5      7       5.410          0.1815E+06
    704      1      5      8       5.410          0.1815E+06
    705      1      5      9       5.410          0.1815E+06
    706      1      5     10       4.410          0.1815E+06
    707      1      5     11       4.410          0.1815E+06
    708      1      5     12       3.410          0.1815E+06
    709      1      5     13       3.400          0.1815E+06
    710      1      5     14       3.410          0.1815E+06
    711      1      5     15       3.410          0.1815E+06
    712      1      5     16       3.410          0.1815E+06
    713      1      5     17       3.410          0.1815E+06
    714      1      5     18       3.410          0.1815E+06
    715      1      5     19       3.410          0.1815E+06
    716      1      5     20       5.410          0.1815E+06
    717      1      5     21       5.410          0.1815E+06
    718      1      5     22       9.210          0.1815E+06
    719      1      5     23       12.52          0.1815E+06
    720      1      5     24       12.43          0.1815E+06
    721      1      5     25       12.26          0.1815E+06
    722      1      5     26       13.27          0.1815E+06
    723      1      5     27       13.68          0.1815E+06
    724      1      5     28       14.14          0.1815E+06
    725      1      5     29       14.68          0.1815E+06
    726      1      5     30       14.72          0.1815E+06
    727      1      5     31       15.40          0.1815E+06
    728      1      5     32       16.00          0.1815E+06
    729      1      5     33       16.72          0.1815E+06
    730      1      5     34       16.78          0.1815E+06
    731      1      5     35       16.42          0.1815E+06
    732      1      5     36       16.39          0.1815E+06
    733      1      5     37       16.60          0.1815E+06
    734      1      5     38       17.86          0.1815E+06
    735      1      5     39       19.14          0.1815E+06
    736      1      5     40       19.11          0.1815E+06
    737      1      5     41       16.71          0.1815E+06
    738      1      5     42       16.12          0.1815E+06
    739      1      5     43       16.29          0.1815E+06
    740      1      5     44       14.73          0.1815E+06
    741      1      5     45       14.84          0.1815E+06
    742      1      5     46       20.14          0.1815E+06
    743      1      5     47       20.59          0.1815E+06
    744      1      5     48       20.40          0.1815E+06
    745      1      5     49       20.42          0.1815E+06
    746      1      5     50       20.22          0.1815E+06
    747      1      5     51       19.50          0.1815E+06
    748      1      5     52       19.15          0.1815E+06
    749      1      5     53       19.13          0.1815E+06
    750      1      5     54       19.50          0.1815E+06
    751      1      5     55       20.60          0.1815E+06
    752      1      5     56       19.62          0.1815E+06
    753      1      5     57       19.25          0.1815E+06
    754      1      5     58       17.97          0.1815E+06
    755      1      5     59       16.71          0.1815E+06
    756      1      5     60       14.85          0.1815E+06
    757      1      5     61       6.340          0.1815E+06
    758      1      5     62       6.190          0.1815E+06
    759      1      5     63       6.050          0.1815E+06
    760      1      5     64       7.230          0.1815E+06
    761      1      5     65       10.06          0.1815E+06
    762      1      5     66       14.35          0.1815E+06
    763      1      5     67       21.70          0.1815E+06
    764      1      5     68       28.21          0.1815E+06
    765      1      5     69       31.80          0.1815E+06
    766      1      5     70       34.47          0.1815E+06
    767      1      5     71       36.18          0.1815E+06
    768      1      5     72       36.22          0.1815E+06
    769      1      5     73       35.40          0.1815E+06
    770      1      5     74       34.80          0.1815E+06
    771      1      5     75       33.40          0.1815E+06
    772      1      5     76       31.90          0.1815E+06
    773      1      5     77       35.20          0.1815E+06
    774      1      5     78       36.20          0.1815E+06
    775      1      5     79       36.90          0.1815E+06
    776      1      5     80       36.90          0.1815E+06
    777      1      5     81       37.70          0.1815E+06
    778      1      5     82       37.70          0.1815E+06
    779      1      5     83       36.70          0.1815E+06
    780      1      5     84       34.60          0.1815E+06
    781      1      5     85       33.90          0.1815E+06
    782      1      5     86       35.20          0.1815E+06
    783      1      5     87       37.40          0.1815E+06
    784      1      5     88       34.60          0.1815E+06
    785      1      5     89       29.30          0.1815E+06
    786      1      5     90       26.00          0.1815E+06
    787      1      5     91       23.40          0.1815E+06
    788      1      5     92       22.90          0.1815E+06
    789      1      5     93       21.70          0.1815E+06
    790      1      5     94       19.80          0.1815E+06
    791      1      5     95       18.70          0.1815E+06
    792      1      5     96       17.90          0.1815E+06
    793      1      5     97       17.40          0.1815E+06
    794      1      5     98       15.40          0.1815E+06
    795      1      5     99       15.20          0.1815E+06
    796      1      5    100       15.00          0.1815E+06
    797      1      5    101       15.00          0.1815E+06
    798      1      5    102       15.10          0.1815E+06
    799      1      5    103       15.50          0.1815E+06
    800      1      5    104       16.30          0.1815E+06
    801      1      5    105       15.50          0.1815E+06
    802      1      5    106       14.90          0.1815E+06
    803      1      5    107       17.30          0.1815E+06
    804      1      5    108       19.90          0.1815E+06
    805      1      5    109       19.90          0.1815E+06
    806      1      5    110       18.10          0.1815E+06
    807      1      5    111       18.00          0.1815E+06
    808      1      5    112       17.20          0.1815E+06
    809      1      5    113       16.00          0.1815E+06
    810      1      5    114       16.30          0.1815E+06
    811      1      5    115       15.80          0.1815E+06
    812      1      5    116       15.30          0.1815E+06
    813      1      5    117       15.00          0.1815E+06
    814      1      5    118       14.20          0.1815E+06
    815      1      5    119       13.50          0.1815E+06
    816      1      5    120       13.40          0.1815E+06
    817      1      5    121       13.60          0.1815E+06
    818      1      5    122       13.30          0.1815E+06
    819      1      5    123       14.60          0.1815E+06
    820      1      5    124       15.70          0.1815E+06
    821      1      5    125       14.40          0.1815E+06
    822      1      5    126       13.70          0.1815E+06
    823      1      5    127       13.80          0.1815E+06
    824      1      5    128       13.90          0.1815E+06
    825      1      5    129       13.40          0.1815E+06
    826      1      5    130       12.20          0.1815E+06
    827      1      5    131       9.970          0.1815E+06
    828      1      5    132       8.230          0.1815E+06
    829      1      5    133       6.730          0.1815E+06
    830      1      5    134       5.000          0.1815E+06
    831      1      5    135       5.670          0.1815E+06
    832      1      5    136       5.800          0.1815E+06
    833      1      5    137       5.840          0.1815E+06
    834      1      5    138       5.860          0.1815E+06
    835      1      5    139       5.820          0.1815E+06
    836      1      5    140       5.800          0.1815E+06
    837      1      5    141       5.860          0.1815E+06
    838      1      5    142       5.780          0.1815E+06
    839      1      5    143       5.690          0.1815E+06
    840      1      5    144       5.590          0.1815E+06
    841      1      5    145       5.530          0.1815E+06
    842      1      5    146       4.840          0.1815E+06
    843      1      5    147       4.980          0.1815E+06
    844      1      5    148       5.130          0.1815E+06
    845      1      5    149       5.320          0.1815E+06
    846      1      5    150       5.210          0.1815E+06
    847      1      5    151       5.070          0.1815E+06
    848      1      5    152       4.960          0.1815E+06
    849      1      5    153       5.320          0.1815E+06
    850      1      5    154       5.150          0.1815E+06
    851      1      5    155       4.650          0.1815E+06
    852      1      5    156       4.630          0.1815E+06
    853      1      5    157       4.690          0.1815E+06
    854      1      5    158       4.960          0.1815E+06
    855      1      5    159       4.780          0.1815E+06
    856      1      5    160       4.840          0.1815E+06
    857      1      5    161       4.900          0.1815E+06
    858      1      5    162       5.030          0.1815E+06
    859      1      5    163       4.900          0.1815E+06
    860      1      5    164       4.920          0.1815E+06
    861      1      5    165       4.880          0.1815E+06
    862      1      5    166       4.880          0.1815E+06
    863      1      5    167       4.940          0.1815E+06
    864      1      5    168       4.860          0.1815E+06
    865      1      5    169       4.800          0.1815E+06
    866      1      5    170       4.650          0.1815E+06
    867      1      5    171       4.650          0.1815E+06
    868      1      5    172       4.690          0.1815E+06
    869      1      5    173       4.510          0.1815E+06
    870      1      5    174       4.670          0.1815E+06
    871      1      6      1       7.760          0.1815E+06
    872      1      6      2       7.460          0.1815E+06
    873      1      6      3       6.590          0.1815E+06
    874      1      6      4       6.650          0.1815E+06
    875      1      6      5       6.230          0.1815E+06
    876      1      6      6       5.400          0.1815E+06
    877      1      6      7       5.410          0.1815E+06
    878      1      6      8       4.410          0.1815E+06
    879      1      6      9       4.410          0.1815E+06
    880      1      6     10       4.410          0.1815E+06
    881      1      6     11       4.410          0.1815E+06
    882      1      6     12       3.410          0.1815E+06
    883      1      6     13       3.410          0.1815E+06
    884      1      6     14       3.410          0.1815E+06
    885      1      6     15       3.410          0.1815E+06
    886      1      6     16       3.410          0.1815E+06
    887      1      6     17       3.410          0.1815E+06
    888      1      6     18       3.410          0.1815E+06
    889      1      6     19       3.410          0.1815E+06
    890      1      6     20       1.410          0.1815E+06
    891      1      6     21       1.410          0.1815E+06
    892      1      6     22       6.940          0.1815E+06
    893      1      6     23       9.220          0.1815E+06
    894      1      6     24       11.46          0.1815E+06
    895      1      6     25       13.35          0.1815E+06
    896      1      6     26       13.43          0.1815E+06
    897      1      6     27       13.31          0.1815E+06
    898      1      6     28       13.56          0.1815E+06
    899      1      6     29       14.43          0.1815E+06
    900      1      6     30       15.23          0.1815E+06
    901      1      6     31       15.28          0.1815E+06
    902      1      6     32       15.35          0.1815E+06
    903      1      6     33       16.25          0.1815E+06
    904      1      6     34       16.81          0.1815E+06
    905      1      6     35       16.55          0.1815E+06
    906      1      6     36       17.18          0.1815E+06
    907      1      6     37       17.54          0.1815E+06
    908      1      6     38       16.54          0.1815E+06
    909      1      6     39       14.80          0.1815E+06
    910      1      6     40       9.900          0.1815E+06
    911      1      6     41       13.65          0.1815E+06
    912      1      6     42       11.55          0.1815E+06
    913      1      6     43       11.90          0.1815E+06
    914      1      6     44       13.22          0.1815E+06
    915      1      6     45       17.04          0.1815E+06
    916      1      6     46       19.30          0.1815E+06
    917      1      6     47       19.01          0.1815E+06
    918      1      6     48       16.98          0.1815E+06
    919      1      6     49       16.67          0.1815E+06
    920      1      6     50       14.21          0.1815E+06
    921      1      6     51       15.64          0.1815E+06
    922      1      6     52       16.22          0.1815E+06
    923      1      6     53       16.88          0.1815E+06
    924      1      6     54       17.21          0.1815E+06
    925      1      6     55       19.22          0.1815E+06
    926      1      6     56       18.50          0.1815E+06
    927      1      6     57       16.97          0.1815E+06
    928      1      6     58       14.88          0.1815E+06
    929      1      6     59       12.59          0.1815E+06
    930      1      6     60       9.850          0.1815E+06
    931      1      6     61       6.150          0.1815E+06
    932      1      6     62       6.360          0.1815E+06
    933      1      6     63       6.340          0.1815E+06
    934      1      6     64       9.960          0.1815E+06
    935      1      6     65       13.07          0.1815E+06
    936      1      6     66       18.81          0.1815E+06
    937      1      6     67       26.40          0.1815E+06
    938      1      6     68       30.12          0.1815E+06
    939      1      6     69       32.81          0.1815E+06
    940      1      6     70       35.09          0.1815E+06
    941      1      6     71       35.95          0.1815E+06
    942      1      6     72       36.39          0.1815E+06
    943      1      6     73       34.70          0.1815E+06
    944      1      6     74       30.50          0.1815E+06
    945      1      6     75       28.70          0.1815E+06
    946      1      6     76       29.00          0.1815E+06
    947      1      6     77       30.60          0.1815E+06
    948      1      6     78       32.70          0.1815E+06
    949      1      6     79       34.40          0.1815E+06
    950      1      6     80       35.20          0.1815E+06
    951      1      6     81       35.70          0.1815E+06
    952      1      6     82       35.30          0.1815E+06
    953      1      6     83       33.90          0.1815E+06
    954      1      6     84       31.10          0.1815E+06
    955      1      6     85       34.40          0.1815E+06
    956      1      6     86       36.60          0.1815E+06
    957      1      6     87       36.00          0.1815E+06
    958      1      6     88       31.80          0.1815E+06
    959      1      6     89       25.20          0.1815E+06
    960      1      6     90       23.00          0.1815E+06
    961      1      6     91       21.70          0.1815E+06
    962      1      6     92       20.70          0.1815E+06
    963      1      6     93       19.40          0.1815E+06
    964      1      6     94       18.40          0.1815E+06
    965      1      6     95       17.40          0.1815E+06
    966      1      6     96       17.50          0.1815E+06
    967      1      6     97       17.40          0.1815E+06
    968      1      6     98       17.00          0.1815E+06
    969      1      6     99       16.60          0.1815E+06
    970      1      6    100       16.00          0.1815E+06
    971      1      6    101       16.40          0.1815E+06
    972      1      6    102       17.00          0.1815E+06
    973      1      6    103       16.60          0.1815E+06
    974      1      6    104       16.40          0.1815E+06
    975      1      6    105       16.40          0.1815E+06
    976      1      6    106       18.30          0.1815E+06
    977      1      6    107       21.80          0.1815E+06
    978      1      6    108       26.60          0.1815E+06
    979      1      6    109       27.00          0.1815E+06
    980      1      6    110       23.40          0.1815E+06
    981      1      6    111       19.40          0.1815E+06
    982      1      6    112       16.00          0.1815E+06
    983      1      6    113       14.50          0.1815E+06
    984      1      6    114       14.20          0.1815E+06
    985      1      6    115       13.30          0.1815E+06
    986      1      6    116       13.40          0.1815E+06
    987      1      6    117       12.90          0.1815E+06
    988      1      6    118       12.20          0.1815E+06
    989      1      6    119       12.50          0.1815E+06
    990      1      6    120       12.80          0.1815E+06
    991      1      6    121       13.00          0.1815E+06
    992      1      6    122       13.00          0.1815E+06
    993      1      6    123       10.45          0.1815E+06
    994      1      6    124       12.94          0.1815E+06
    995      1      6    125       10.94          0.1815E+06
    996      1      6    126       11.87          0.1815E+06
    997      1      6    127       9.630          0.1815E+06
    998      1      6    128       12.30          0.1815E+06
    999      1      6    129       12.40          0.1815E+06
   1000      1      6    130       10.64          0.1815E+06
   1001      1      6    131       8.610          0.1815E+06
   1002      1      6    132       6.860          0.1815E+06
   1003      1      6    133       5.320          0.1815E+06
   1004      1      6    134       5.730          0.1815E+06
   1005      1      6    135       5.780          0.1815E+06
   1006      1      6    136       5.880          0.1815E+06
   1007      1      6    137       5.800          0.1815E+06
   1008      1      6    138       5.960          0.1815E+06
   1009      1      6    139       5.900          0.1815E+06
   1010      1      6    140       5.900          0.1815E+06
   1011      1      6    141       5.880          0.1815E+06
   1012      1      6    142       5.760          0.1815E+06
   1013      1      6    143       6.550          0.1815E+06
   1014      1      6    144       6.250          0.1815E+06
   1015      1      6    145       5.510          0.1815E+06
   1016      1      6    146       5.380          0.1815E+06
   1017      1      6    147       5.530          0.1815E+06
   1018      1      6    148       5.710          0.1815E+06
   1019      1      6    149       5.730          0.1815E+06
   1020      1      6    150       5.760          0.1815E+06
   1021      1      6    151       5.610          0.1815E+06
   1022      1      6    152       9.190          0.1815E+06
   1023      1      6    153       10.33          0.1815E+06
   1024      1      6    154       9.030          0.1815E+06
   1025      1      6    155       9.250          0.1815E+06
   1026      1      6    156       7.130          0.1815E+06
   1027      1      6    157       5.710          0.1815E+06
   1028      1      6    158       5.940          0.1815E+06
   1029      1      6    159       4.320          0.1815E+06
   1030      1      6    160       4.730          0.1815E+06
   1031      1      6    161       4.860          0.1815E+06
   1032      1      6    162       4.960          0.1815E+06
   1033      1      6    163       4.940          0.1815E+06
   1034      1      6    164       4.940          0.1815E+06
   1035      1      6    165       4.800          0.1815E+06
   1036      1      6    166       4.800          0.1815E+06
   1037      1      6    167       4.630          0.1815E+06
   1038      1      6    168       4.480          0.1815E+06
   1039      1      6    169       4.530          0.1815E+06
   1040      1      6    170       4.590          0.1815E+06
   1041      1      6    171       4.480          0.1815E+06
   1042      1      6    172       4.030          0.1815E+06
   1043      1      6    173       4.360          0.1815E+06
   1044      1      6    174       4.760          0.1815E+06
   1045      1      7      1       7.210          0.1815E+06
   1046      1      7      2       7.960          0.1815E+06
   1047      1      7      3       6.820          0.1815E+06
   1048      1      7      4       6.730          0.1815E+06
   1049      1      7      5       6.750          0.1815E+06
   1050      1      7      6       5.410          0.1815E+06
   1051      1      7      7       4.410          0.1815E+06
   1052      1      7      8       5.410          0.1815E+06
   1053      1      7      9       5.410          0.1815E+06
   1054      1      7     10       5.410          0.1815E+06
   1055      1      7     11       4.410          0.1815E+06
   1056      1      7     12       3.410          0.1815E+06
   1057      1      7     13       3.410          0.1815E+06
   1058      1      7     14       3.410          0.1815E+06
   1059      1      7     15       3.410          0.1815E+06
   1060      1      7     16       3.410          0.1815E+06
   1061      1      7     17       3.410          0.1815E+06
   1062      1      7     18       4.410          0.1815E+06
   1063      1      7     19       4.500          0.1815E+06
   1064      1      7     20       2.410          0.1815E+06
   1065      1      7     21       2.410          0.1815E+06
   1066      1      7     22       2.410          0.1815E+06
   1067      1      7     23       5.410          0.1815E+06
   1068      1      7     24       12.22          0.1815E+06
   1069      1      7     25       12.63          0.1815E+06
   1070      1      7     26       13.75          0.1815E+06
   1071      1      7     27       14.30          0.1815E+06
   1072      1      7     28       14.06          0.1815E+06
   1073      1      7     29       14.14          0.1815E+06
   1074      1      7     30       14.73          0.1815E+06
   1075      1      7     31       15.06          0.1815E+06
   1076      1      7     32       14.97          0.1815E+06
   1077      1      7     33       15.47          0.1815E+06
   1078      1      7     34       15.60          0.1815E+06
   1079      1      7     35       14.60          0.1815E+06
   1080      1      7     36       17.14          0.1815E+06
   1081      1      7     37       17.75          0.1815E+06
   1082      1      7     38       16.35          0.1815E+06
   1083      1      7     39       12.42          0.1815E+06
   1084      1      7     40       14.64          0.1815E+06
   1085      1      7     41       17.14          0.1815E+06
   1086      1      7     42       17.37          0.1815E+06
   1087      1      7     43       17.35          0.1815E+06
   1088      1      7     44       17.25          0.1815E+06
   1089      1      7     45       17.75          0.1815E+06
   1090      1      7     46       18.51          0.1815E+06
   1091      1      7     47       18.04          0.1815E+06
   1092      1      7     48       14.01          0.1815E+06
   1093      1      7     49       12.77          0.1815E+06
   1094      1      7     50       11.35          0.1815E+06
   1095      1      7     51       11.21          0.1815E+06
   1096      1      7     52       11.82          0.1815E+06
   1097      1      7     53       12.60          0.1815E+06
   1098      1      7     54       14.96          0.1815E+06
   1099      1      7     55       17.94          0.1815E+06
   1100      1      7     56       13.93          0.1815E+06
   1101      1      7     57       11.73          0.1815E+06
   1102      1      7     58       8.640          0.1815E+06
   1103      1      7     59       5.980          0.1815E+06
   1104      1      7     60       5.980          0.1815E+06
   1105      1      7     61       6.050          0.1815E+06
   1106      1      7     62       6.090          0.1815E+06
   1107      1      7     63       6.900          0.1815E+06
   1108      1      7     64       10.56          0.1815E+06
   1109      1      7     65       16.65          0.1815E+06
   1110      1      7     66       24.45          0.1815E+06
   1111      1      7     67       28.52          0.1815E+06
   1112      1      7     68       30.34          0.1815E+06
   1113      1      7     69       32.61          0.1815E+06
   1114      1      7     70       34.06          0.1815E+06
   1115      1      7     71       35.29          0.1815E+06
   1116      1      7     72       35.63          0.1815E+06
   1117      1      7     73       32.50          0.1815E+06
   1118      1      7     74       28.90          0.1815E+06
   1119      1      7     75       26.20          0.1815E+06
   1120      1      7     76       25.30          0.1815E+06
   1121      1      7     77       25.50          0.1815E+06
   1122      1      7     78       28.20          0.1815E+06
   1123      1      7     79       30.60          0.1815E+06
[...]
  34748      1    200    122       9.070          0.1815E+06
  34749      1    200    123       8.690          0.1815E+06
  34750      1    200    124       8.390          0.1815E+06
  34751      1    200    125       8.020          0.1815E+06
  34752      1    200    126       8.550          0.1815E+06
  34753      1    200    127       8.010          0.1815E+06
  34754      1    200    128       8.140          0.1815E+06
  34755      1    200    129       8.220          0.1815E+06
  34756      1    200    130       7.760          0.1815E+06
  34757      1    200    131       7.670          0.1815E+06
  34758      1    200    132       7.550          0.1815E+06
  34759      1    200    133       7.000          0.1815E+06
  34760      1    200    134       6.880          0.1815E+06
  34761      1    200    135       6.650          0.1815E+06
  34762      1    200    136       5.880          0.1815E+06
  34763      1    200    137       6.280          0.1815E+06
  34764      1    200    138       5.730          0.1815E+06
  34765      1    200    139       5.650          0.1815E+06
  34766      1    200    140       6.090          0.1815E+06
  34767      1    200    141       6.280          0.1815E+06
  34768      1    200    142       6.300          0.1815E+06
  34769      1    200    143       6.090          0.1815E+06
  34770      1    200    144       6.110          0.1815E+06
  34771      1    200    145       10.06          0.1815E+06
  34772      1    200    146       6.880          0.1815E+06
  34773      1    200    147       7.050          0.1815E+06
  34774      1    200    148       6.150          0.1815E+06
  34775      1    200    149       6.510          0.1815E+06
  34776      1    200    150       7.210          0.1815E+06
  34777      1    200    151       7.380          0.1815E+06
  34778      1    200    152       7.340          0.1815E+06
  34779      1    200    153       6.230          0.1815E+06
  34780      1    200    154       6.010          0.1815E+06
  34781      1    200    155       6.110          0.1815E+06
  34782      1    200    156       6.170          0.1815E+06
  34783      1    200    157       6.010          0.1815E+06
  34784      1    200    158       6.130          0.1815E+06
  34785      1    200    159       6.110          0.1815E+06
  34786      1    200    160       5.840          0.1815E+06
  34787      1    200    161       6.170          0.1815E+06
  34788      1    200    162       8.520          0.1815E+06
  34789      1    200    163       9.110          0.1815E+06
  34790      1    200    164       6.340          0.1815E+06
  34791      1    200    165       6.510          0.1815E+06
  34792      1    200    166       9.600          0.1815E+06
  34793      1    200    167       12.59          0.1815E+06
  34794      1    200    168       14.14          0.1815E+06
  34795      1    200    169       15.06          0.1815E+06
  34796      1    200    170       14.36          0.1815E+06
  34797      1    200    171       12.93          0.1815E+06
  34798      1    200    172       13.27          0.1815E+06
  34799      1    200    173       14.56          0.1815E+06
  34800      1    200    174       15.01          0.1815E+06

  34800 DRAINS

                 RECHARGE =  8.005495E-04

 SOLVING FOR HEAD 

    ------------------------------------------------
       NWT REQUIRED          163 OUTER ITERATIONS 
       AND A TOTAL OF       5966 INNER ITERATIONS.
    ------------------------------------------------

 OUTPUT CONTROL FOR STRESS PERIOD    1   TIME STEP    1
    SAVE HEAD FOR ALL LAYERS

 HEAD WILL BE SAVED ON UNIT   51 AT END OF TIME STEP    1, STRESS PERIOD    1
1
  VOLUMETRIC BUDGET FOR ENTIRE MODEL AT END OF TIME STEP    1, STRESS PERIOD   1
  ------------------------------------------------------------------------------

     CUMULATIVE VOLUMES      L**3       RATES FOR THIS TIME STEP      L**3/T
     ------------------                 ------------------------

           IN:                                      IN:
           ---                                      ---
             STORAGE =           0.0000               STORAGE =           0.0000
       CONSTANT HEAD =       2.0153E-12         CONSTANT HEAD =       2.0153E-12
              DRAINS =           0.0000                DRAINS =           0.0000
            RECHARGE =      123983.6172              RECHARGE =      123983.6172

            TOTAL IN =      123983.6172              TOTAL IN =      123983.6172

          OUT:                                     OUT:
          ----                                     ----
             STORAGE =           0.0000               STORAGE =           0.0000
       CONSTANT HEAD =       27013.3340         CONSTANT HEAD =       27013.3340
              DRAINS =       96970.2344                DRAINS =       96970.2344
            RECHARGE =           0.0000              RECHARGE =           0.0000

           TOTAL OUT =      123983.5703             TOTAL OUT =      123983.5703

            IN - OUT =       4.6875E-02              IN - OUT =       4.6875E-02

 PERCENT DISCREPANCY =           0.00     PERCENT DISCREPANCY =           0.00






         TIME SUMMARY AT END OF TIME STEP    1 IN STRESS PERIOD    1
                    SECONDS     MINUTES      HOURS       DAYS        YEARS
                    -----------------------------------------------------------
   TIME STEP LENGTH  86400.      1440.0      24.000      1.0000     2.73785E-03
 STRESS PERIOD TIME  86400.      1440.0      24.000      1.0000     2.73785E-03
         TOTAL TIME  86400.      1440.0      24.000      1.0000     2.73785E-03
1
1
                            STRESS PERIOD NO.    2, LENGTH =   3652.000    
                            -----------------------------------------------

                              NUMBER OF TIME STEPS =     1

                               MULTIPLIER FOR DELT =     1.000

                            INITIAL TIME STEP SIZE =   3652.000    

 REUSING NON-PARAMETER DRAINS FROM LAST STRESS PERIOD

  34800 DRAINS

                 RECHARGE =  8.539841E-04

 SOLVING FOR HEAD 

    ------------------------------------------------
       NWT REQUIRED           10 OUTER ITERATIONS 
       AND A TOTAL OF        145 INNER ITERATIONS.
    ------------------------------------------------

 OUTPUT CONTROL FOR STRESS PERIOD    2   TIME STEP    1
    SAVE HEAD FOR ALL LAYERS

 HEAD WILL BE SAVED ON UNIT   51 AT END OF TIME STEP    1, STRESS PERIOD    2
1
  VOLUMETRIC BUDGET FOR ENTIRE MODEL AT END OF TIME STEP    1, STRESS PERIOD   2
  ------------------------------------------------------------------------------

     CUMULATIVE VOLUMES      L**3       RATES FOR THIS TIME STEP      L**3/T
     ------------------                 ------------------------

           IN:                                      IN:
           ---                                      ---
             STORAGE =         181.1928               STORAGE =       4.9615E-02
       CONSTANT HEAD =       2.0153E-12         CONSTANT HEAD =           0.0000
              DRAINS =           0.0000                DRAINS =           0.0000
            RECHARGE =   483134528.0000              RECHARGE =      132259.1875

            TOTAL IN =   483134720.0000              TOTAL IN =      132259.2344

          OUT:                                     OUT:
          ----                                     ----
             STORAGE =    20832812.0000               STORAGE =        5704.4941
       CONSTANT HEAD =    99923288.0000         CONSTANT HEAD =       27353.8535
              DRAINS =   362381152.0000                DRAINS =       99201.5859
            RECHARGE =           0.0000              RECHARGE =           0.0000

           TOTAL OUT =   483137248.0000             TOTAL OUT =      132259.9375

            IN - OUT =       -2528.0000              IN - OUT =          -0.7031

 PERCENT DISCREPANCY =          -0.00     PERCENT DISCREPANCY =          -0.00






         TIME SUMMARY AT END OF TIME STEP    1 IN STRESS PERIOD    2
                    SECONDS     MINUTES      HOURS       DAYS        YEARS
                    -----------------------------------------------------------
   TIME STEP LENGTH 3.15533E+08 5.25888E+06  87648.      3652.0      9.9986    
 STRESS PERIOD TIME 3.15533E+08 5.25888E+06  87648.      3652.0      9.9986    
         TOTAL TIME 3.15619E+08 5.26032E+06  87672.      3653.0      10.001    
1
1
                            STRESS PERIOD NO.    3, LENGTH =   3652.000    
                            -----------------------------------------------

                              NUMBER OF TIME STEPS =     1

                               MULTIPLIER FOR DELT =     1.000

                            INITIAL TIME STEP SIZE =   3652.000    

 REUSING NON-PARAMETER DRAINS FROM LAST STRESS PERIOD

  34800 DRAINS

                 RECHARGE =  8.287295E-04

 SOLVING FOR HEAD 

    ------------------------------------------------
       NWT REQUIRED            3 OUTER ITERATIONS 
       AND A TOTAL OF         37 INNER ITERATIONS.
    ------------------------------------------------

 OUTPUT CONTROL FOR STRESS PERIOD    3   TIME STEP    1
    SAVE HEAD FOR ALL LAYERS

 HEAD WILL BE SAVED ON UNIT   51 AT END OF TIME STEP    1, STRESS PERIOD    3
1
  VOLUMETRIC BUDGET FOR ENTIRE MODEL AT END OF TIME STEP    1, STRESS PERIOD   3
  ------------------------------------------------------------------------------

     CUMULATIVE VOLUMES      L**3       RATES FOR THIS TIME STEP      L**3/T
     ------------------                 ------------------------

           IN:                                      IN:
           ---                                      ---
             STORAGE =      134081.4375               STORAGE =          36.6649
       CONSTANT HEAD =       2.0153E-12         CONSTANT HEAD =           0.0000
              DRAINS =           0.0000                DRAINS =           0.0000
            RECHARGE =   951861120.0000              RECHARGE =      128347.9297

            TOTAL IN =   951995200.0000              TOTAL IN =      128384.5938

          OUT:                                     OUT:
          ----                                     ----
             STORAGE =    27564996.0000               STORAGE =        1843.4238
       CONSTANT HEAD =   199757312.0000         CONSTANT HEAD =       27336.8086
              DRAINS =   724677120.0000                DRAINS =       99204.8125
            RECHARGE =           0.0000              RECHARGE =           0.0000

           TOTAL OUT =   951999424.0000             TOTAL OUT =      128385.0469

            IN - OUT =       -4224.0000              IN - OUT =          -0.4531

 PERCENT DISCREPANCY =          -0.00     PERCENT DISCREPANCY =          -0.00






         TIME SUMMARY AT END OF TIME STEP    1 IN STRESS PERIOD    3
                    SECONDS     MINUTES      HOURS       DAYS        YEARS
                    -----------------------------------------------------------
   TIME STEP LENGTH 3.15533E+08 5.25888E+06  87648.      3652.0      9.9986    
 STRESS PERIOD TIME 3.15533E+08 5.25888E+06  87648.      3652.0      9.9986    
         TOTAL TIME 6.31152E+08 1.05192E+07 1.75320E+05  7305.0      20.000    
1
1
                            STRESS PERIOD NO.    4, LENGTH =   3652.000    
                            -----------------------------------------------

                              NUMBER OF TIME STEPS =     1

                               MULTIPLIER FOR DELT =     1.000

                            INITIAL TIME STEP SIZE =   3652.000    

 REUSING NON-PARAMETER DRAINS FROM LAST STRESS PERIOD

  34800 DRAINS

                 RECHARGE =  8.664458E-04

 SOLVING FOR HEAD 

    ------------------------------------------------
       NWT REQUIRED            9 OUTER ITERATIONS 
       AND A TOTAL OF        136 INNER ITERATIONS.
    ------------------------------------------------

 OUTPUT CONTROL FOR STRESS PERIOD    4   TIME STEP    1
    SAVE HEAD FOR ALL LAYERS

 HEAD WILL BE SAVED ON UNIT   51 AT END OF TIME STEP    1, STRESS PERIOD    4
1
  VOLUMETRIC BUDGET FOR ENTIRE MODEL AT END OF TIME STEP    1, STRESS PERIOD   4
  ------------------------------------------------------------------------------

     CUMULATIVE VOLUMES      L**3       RATES FOR THIS TIME STEP      L**3/T
     ------------------                 ------------------------

           IN:                                      IN:
           ---                                      ---
             STORAGE =      134095.8594               STORAGE =       3.9503E-03
       CONSTANT HEAD =       2.0153E-12         CONSTANT HEAD =           0.0000
              DRAINS =           0.0000                DRAINS =           0.0000
            RECHARGE =  1441920000.0000              RECHARGE =      134189.1719

            TOTAL IN =  1442054144.0000              TOTAL IN =      134189.1719

          OUT:                                     OUT:
          ----                                     ----
             STORAGE =    47938608.0000               STORAGE =        5578.7539
       CONSTANT HEAD =   300558656.0000         CONSTANT HEAD =       27601.6777
              DRAINS =  1093585536.0000                DRAINS =      101015.4531
            RECHARGE =           0.0000              RECHARGE =           0.0000

           TOTAL OUT =  1442082816.0000             TOTAL OUT =      134195.8750

            IN - OUT =      -28672.0000              IN - OUT =          -6.7031

 PERCENT DISCREPANCY =          -0.00     PERCENT DISCREPANCY =          -0.00






         TIME SUMMARY AT END OF TIME STEP    1 IN STRESS PERIOD    4
                    SECONDS     MINUTES      HOURS       DAYS        YEARS
                    -----------------------------------------------------------
   TIME STEP LENGTH 3.15533E+08 5.25888E+06  87648.      3652.0      9.9986    
 STRESS PERIOD TIME 3.15533E+08 5.25888E+06  87648.      3652.0      9.9986    
         TOTAL TIME 9.46685E+08 1.57781E+07 2.62968E+05  10957.      29.999    
1
1
                            STRESS PERIOD NO.    5, LENGTH =   3652.000    
                            -----------------------------------------------

                              NUMBER OF TIME STEPS =     1

                               MULTIPLIER FOR DELT =     1.000

                            INITIAL TIME STEP SIZE =   3652.000    

 REUSING NON-PARAMETER DRAINS FROM LAST STRESS PERIOD

  34800 DRAINS

                 RECHARGE =  7.218784E-04

 SOLVING FOR HEAD 

    ------------------------------------------------
       NWT REQUIRED            5 OUTER ITERATIONS 
       AND A TOTAL OF         65 INNER ITERATIONS.
    ------------------------------------------------

 OUTPUT CONTROL FOR STRESS PERIOD    5   TIME STEP    1
    SAVE HEAD FOR ALL LAYERS

 HEAD WILL BE SAVED ON UNIT   51 AT END OF TIME STEP    1, STRESS PERIOD    5
1
  VOLUMETRIC BUDGET FOR ENTIRE MODEL AT END OF TIME STEP    1, STRESS PERIOD   5
  ------------------------------------------------------------------------------

     CUMULATIVE VOLUMES      L**3       RATES FOR THIS TIME STEP      L**3/T
     ------------------                 ------------------------

           IN:                                      IN:
           ---                                      ---
             STORAGE =    39938872.0000               STORAGE =       10899.4453
       CONSTANT HEAD =       2.0153E-12         CONSTANT HEAD =           0.0000
              DRAINS =           0.0000                DRAINS =           0.0000
            RECHARGE =  1850211968.0000              RECHARGE =      111799.5625

            TOTAL IN =  1890150784.0000              TOTAL IN =      122699.0078

          OUT:                                     OUT:
          ----                                     ----
             STORAGE =    47938624.0000               STORAGE =       4.6168E-03
       CONSTANT HEAD =   398446944.0000         CONSTANT HEAD =       26804.0234
              DRAINS =  1443794176.0000                DRAINS =       95895.0312
            RECHARGE =           0.0000              RECHARGE =           0.0000

           TOTAL OUT =  1890179712.0000             TOTAL OUT =      122699.0625

            IN - OUT =      -28928.0000              IN - OUT =      -5.4688E-02

 PERCENT DISCREPANCY =          -0.00     PERCENT DISCREPANCY =          -0.00






         TIME SUMMARY AT END OF TIME STEP    1 IN STRESS PERIOD    5
                    SECONDS     MINUTES      HOURS       DAYS        YEARS
                    -----------------------------------------------------------
   TIME STEP LENGTH 3.15533E+08 5.25888E+06  87648.      3652.0      9.9986    
 STRESS PERIOD TIME 3.15533E+08 5.25888E+06  87648.      3652.0      9.9986    
         TOTAL TIME 1.26222E+09 2.10370E+07 3.50616E+05  14609.      39.997    
1
1
                            STRESS PERIOD NO.    6, LENGTH =   732.0000    
                            -----------------------------------------------

                              NUMBER OF TIME STEPS =     1

                               MULTIPLIER FOR DELT =     1.000

                            INITIAL TIME STEP SIZE =   732.0000    

 REUSING NON-PARAMETER DRAINS FROM LAST STRESS PERIOD

  34800 DRAINS

                 RECHARGE =  4.581967E-04

 SOLVING FOR HEAD 

    ------------------------------------------------
       NWT REQUIRED            4 OUTER ITERATIONS 
       AND A TOTAL OF         33 INNER ITERATIONS.
    ------------------------------------------------

 OUTPUT CONTROL FOR STRESS PERIOD    6   TIME STEP    1
    SAVE HEAD FOR ALL LAYERS

 HEAD WILL BE SAVED ON UNIT   51 AT END OF TIME STEP    1, STRESS PERIOD    6
1
  VOLUMETRIC BUDGET FOR ENTIRE MODEL AT END OF TIME STEP    1, STRESS PERIOD   6
  ------------------------------------------------------------------------------

     CUMULATIVE VOLUMES      L**3       RATES FOR THIS TIME STEP      L**3/T
     ------------------                 ------------------------

           IN:                                      IN:
           ---                                      ---
             STORAGE =    73214928.0000               STORAGE =       45459.0977
       CONSTANT HEAD =       2.0153E-12         CONSTANT HEAD =           0.0000
              DRAINS =           0.0000                DRAINS =           0.0000
            RECHARGE =  1902156416.0000              RECHARGE =       70962.3516

            TOTAL IN =  1975371392.0000              TOTAL IN =      116421.4531

          OUT:                                     OUT:
          ----                                     ----
             STORAGE =    47938624.0000               STORAGE =       4.1868E-08
       CONSTANT HEAD =   417404928.0000         CONSTANT HEAD =       25898.8711
              DRAINS =  1510054912.0000                DRAINS =       90520.0547
            RECHARGE =           0.0000              RECHARGE =           0.0000

           TOTAL OUT =  1975398400.0000             TOTAL OUT =      116418.9219

            IN - OUT =      -27008.0000              IN - OUT =           2.5312

 PERCENT DISCREPANCY =          -0.00     PERCENT DISCREPANCY =           0.00






         TIME SUMMARY AT END OF TIME STEP    1 IN STRESS PERIOD    6
                    SECONDS     MINUTES      HOURS       DAYS        YEARS
                    -----------------------------------------------------------
   TIME STEP LENGTH 6.32448E+07 1.05408E+06  17568.      732.00      2.0041    
 STRESS PERIOD TIME 6.32448E+07 1.05408E+06  17568.      732.00      2.0041    
         TOTAL TIME 1.32546E+09 2.20910E+07 3.68184E+05  15341.      42.001    
1

 Run end date and time (yyyy/mm/dd hh:mm:ss): 2023/06/14 14:33:41
 Elapsed run time:  1 Minutes, 57.817 Seconds

